12

C       1.39811724       0.00212099      -0.00415283 
C       0.69880437       1.21341153      -0.00415283 
C      -0.69986061       1.21342360      -0.00417041 
C      -1.39920704       0.00216111      -0.00418243 
C      -0.69989861      -1.20912789      -0.00417948 
C       0.69876572      -1.20914915      -0.00415562 
H       2.48956488       0.00212099      -0.00415283 
H       1.24454047       2.15863657      -0.00415870 
H      -1.24560698       2.15863905      -0.00419452 
H      -2.49065378       0.00221498      -0.00418507 
H      -1.24563422      -2.15434440      -0.00417077 
H       1.24446829      -2.15438557      -0.00411613 
9

C      -0.34843410      -0.42164135       0.09917081 
C      -0.81376419       1.02307987       0.09917081 
O       1.08807274      -0.42164135       0.09917081 
H      -0.73808944      -0.94666886       0.99187379 
H      -0.73805985      -0.94678206      -0.79347509 
H      -1.91212140       1.07294520       0.09921608 
H      -0.44274240       1.54919465       0.99018210 
H      -0.44283860       1.54928578      -0.79180461 
H       1.38953657      -1.34579264       0.09899338 
9

C      -1.07231205      -0.78062503       0.10872002 
C       0.44762488      -0.78062503       0.10872002 
C       0.96242786       0.65875995       0.10872002 
O       1.70749574       1.11087156       0.95182502 
O      -1.74310751      -0.53154218      -0.87463660 
H      -1.54806098      -0.98296789       1.09981208 
H       0.86218951      -1.31339189       0.97291257 
H       0.78324139      -1.23915057      -0.83518013 
H       0.58851929       1.27812126      -0.74242897 
15

C      -2.41787243       0.01879307      -0.10880080 
C      -0.90926178       0.01879307      -0.10880080 
C      -0.19235488       1.22742124      -0.10880080 
C       1.20375863       1.23636110      -0.09871205 
C       1.91500138       0.03176186      -0.08934133 
C       1.21594774      -1.17741907      -0.09035993 
C      -0.18254411      -1.18075486      -0.10013318 
H      -2.81803561       0.63115266      -0.93036175 
H      -2.81916553      -0.99732930      -0.21873872 
H      -2.81451245       0.43538501       0.82986721 
H      -0.73773888       2.17432782      -0.11761211 
H       1.73925428       2.18760853      -0.09959325 
H       3.00626420       0.03723908      -0.08296813 
H       1.75982655      -2.12363312      -0.08483599 
H      -0.72015188      -2.13218397      -0.10208067 
3

O      -0.07219623      -0.09295695      -0.05185407 
H       0.88705989      -0.09295695      -0.05185407 
H      -0.30961270       0.83645456      -0.05185407 
