3
1.2429079572387856
O       1.05005983      -0.83450271       0.07325769   
H       0.81210892      -0.33994950       0.74375268   
H       0.60378236      -1.49566351       0.11769022   
3
1.0318087238413054
O      -1.92375048       1.43102229       1.21083258   
H      -0.96329742       1.43102229       1.21083258   
H      -1.78930706       2.61445018       1.21083258   
3
0.13290581366181628
O       0.21440794      -1.10283843       0.44486279   
H       1.19800092      -1.10283843       0.44486279   
H       0.03564192      -0.08852098       0.44486279   
3
0.5156991448885814
O       2.27360885       0.17651963      -2.23991346   
H       3.20477201       0.17651963      -2.23991346   
H       2.43902577       1.19114497      -2.23991346   
3
0.308610096246536
O      -1.74101004      -0.43628326      -2.29745601   
H      -1.94002595       0.44724273      -2.37637008   
H      -0.90367197      -0.22061973      -1.73309663   
3
0.12283942320379866
O       0.00000000       0.00000000       0.00000000   
H      -0.72034446      -0.53954041       0.00000000   
H       0.74257732      -0.55619289       0.00000000   
3
0.023818672341723305
O       0.00000000       0.00000000       0.00000000   
H      -0.73809142      -0.58477104       0.00000000   
H       0.77075033      -0.61064586       0.00000000   
3
0.7125072223477306
O       1.24530510      -0.38830766      -0.11797927   
H       1.31497888       0.62450006      -0.05872492   
H       0.97371110      -0.56319802      -0.87875749   
3
1.3723940379817159
O      -1.13803150       0.62900025       0.35888250   
H      -1.52475426       0.69498907      -0.47353689   
H      -0.99092371       1.68116161       0.99667949   
3
0.19060913442336405
O       0.00128893       1.45612975       0.07788639   
H      -0.45097801       1.69578535      -0.72067564   
H      -0.09749684       2.19732960       0.80062541   
3
0.3556325701682029
O      -1.38385010       0.01413911      -0.03975497   
H      -2.16192436      -0.54581718       0.40550506   
H      -0.62125373      -0.64364184      -0.28009496   
3
0.0520082478515573
O       0.00000000       0.00000000       0.00000000   
H      -0.80415702      -0.52890239       0.00000000   
H       0.80415702      -0.52890239       0.00000000   
3
0.14466867574971873
O      -0.65284469      -0.02263240      -1.13807287   
H      -0.45548517       0.88050865      -1.20715052   
H      -0.25934127      -0.08044726      -0.25113775   
3
0.16751134372744614
O      -1.27152971       2.49117718       0.21937749   
H      -0.71719134       2.40514232      -0.54306454   
H      -2.16739547       2.93971241       0.06408564   
3
0.3524161930292218
O      -1.96515310       0.33451073       1.55335078   
H      -0.87837018       0.33451073       1.55335078   
H      -2.19196631       1.23674532       1.55335078   
3
0.4159114103543586
O       0.13363530       0.96378788      -0.75057656   
H       1.23401531       0.96378788      -0.75057656   
H      -0.16943850       1.87669957      -0.75057656   
3
0.4140619083572254
O       1.25489347      -0.06151007      -0.01092203   
H       1.35586509      -1.04153773       0.15998044   
H       1.92183362       0.56215901      -0.38938912   
3
0.19823484246281525
O       0.00000000       0.00000000       0.00000000   
H      -0.78583403      -0.65809564       0.00000000   
H       0.78583403      -0.65809564       0.00000000   
3
0.2686371338309316
O      -2.60270570       0.03783268       1.21037532   
H      -1.60281346       0.03783268       1.21037532   
H      -2.56157004       0.96616808       1.21037532   
3
1.138753154789157
O      -0.41705168       1.07656672      -0.67806668   
H       0.67713811       1.07656672      -0.67806668   
H      -0.49552213       1.89192339      -0.67806668   
3
1.0096133949569495
O      -1.37188085      -1.04438717      -1.58047710   
H      -0.45689876      -1.04438717      -1.58047710   
H      -1.45050767       0.15471912      -1.58047710   
3
0.12206509864385334
O       1.40966570       0.03469318       0.06508693   
H       2.43157120       0.10868395      -0.01313888   
H       1.05559202       0.93185991       0.09829450   
3
0.4821219379094869
O      -1.02449110       0.15482574       0.83850689   
H       0.00334275       0.15482574       0.83850689   
H      -1.61727532       0.96435364       0.83850689   
3
0.17737658992922065
O       1.21226297       0.33743089      -0.21367468   
H       1.55454854      -0.48600237      -0.12658082   
H       0.85501382       0.72636381       0.58619861   
3
0.8689037327126162
O      -0.89100673      -0.96962117       0.29362710   
H       0.24940415      -0.96962117       0.29362710   
H      -1.34900614      -0.18413072       0.29362710   
3
1.634349036609444
O       0.68627834       1.00613219      -0.54336946   
H       1.49768707       1.00613219      -0.54336946   
H       0.48907563       1.79161186      -0.54336946   
3
0.06456845279185369
O       0.00000000       0.00000000       0.00000000   
H      -0.71367162      -0.61433618       0.00000000   
H       0.75577614      -0.65058020       0.00000000   
3
0.641594991913884
O       1.32521567       0.21931918       0.01707931   
H       1.00015853       1.19608624       0.27272684   
H       2.11241170       0.05255668       0.30173890   
3
1.4993305272382094
O      -0.89901025       0.91679491      -0.35009905   
H      -1.73511092       0.44828380      -0.49261745   
H      -1.38578616       2.12193703      -0.37368647   
3
0.6502227801672567
O       0.22976360       0.21069250       1.30483112   
H       1.17688240       0.21069250       1.30483112   
H      -0.40922953       1.08756711       1.30483112   
3
0.5818511867449438
O      -0.14138867      -1.26718780      -0.13896434   
H      -0.14711015      -0.17075739      -0.07722202   
H      -0.60006105      -1.76712082       0.50075570   
3
0.4302605639712113
O       0.62300337       2.08621599       0.65275456   
H       1.60452586       2.08621599       0.65275456   
H       0.00828841       2.89790040       0.65275456   
3
0.461043645801272
O       1.46359152      -2.16235003       1.16768117   
H       2.46245517      -2.16235003       1.16768117   
H       1.28483680      -1.06776760       1.16768117   
3
0.9233746473945527
O      -0.76324555      -1.92580906      -2.47267946   
H       0.23708716      -1.92580906      -2.47267946   
H      -0.79971289      -1.10973258      -2.47267946   
3
0.8836933001354732
O      -0.46231466       1.07300967      -0.65588628   
H       0.57258256       1.07300967      -0.65588628   
H      -1.04763803       2.03243296      -0.65588628   
3
0.9233746473945527
O      -0.76324555      -1.92580906      -2.47267946   
H       0.23708716      -1.92580906      -2.47267946   
H      -0.79971289      -1.10973258      -2.47267946   
3
0.13012245211874
O       0.46515465      -1.71148390       1.36293733   
H       0.45325089      -1.92532423       2.27571805   
H       0.21432381      -2.63144526       1.09489533   
3
0.1234973773941219
O       0.00000000       0.00000000       0.00000000   
H      -0.78704303      -0.58949785       0.00000000   
H       0.82039231      -0.61447658       0.00000000   
3
0.9306454497856965
O       0.49619121      -1.16729343       0.43092775   
H       1.19578059      -1.70940353      -0.12222861   
H       1.36530692      -0.47079621       0.77349570   
3
0.8712387334474285
O       1.32664315      -0.16120109       0.15281041   
H       1.72442017      -0.85169685       0.57134414   
H       0.84047453      -0.23801387      -0.85487227   
3
1.635501087953331
O      -1.26487806       0.07572630       0.32666423   
H      -0.10539380       0.07572630       0.32666423   
H      -1.22521796       1.28323425       0.32666423   
3
0.26325121255290274
O       0.41249267      -0.05919346      -1.22387109   
H       1.38645684      -0.05919346      -1.22387109   
H       0.21840823       0.78891345      -1.22387109   
3
0.5083325657884804
O      -0.20789776       1.21884113      -0.21191020   
H       0.90615644       1.21884113      -0.21191020   
H      -0.52577463       2.10060990      -0.21191020   
3
0.08933029433300403
O       1.56590597       0.01116771      -0.03880732   
H       1.89426795      -0.82407150      -0.32177968   
H       2.21065682       0.66813550       0.08047301   
3
1.6044440292776703
O       0.90491453       0.56252402       0.73457703   
H       1.68509803       0.56252402       0.73457703   
H       0.36871057       1.26660319       0.73457703   
3
0.2015504505763761
O       0.03686813       1.33553367      -0.03004951   
H      -0.30601014       2.00358851      -0.75189173   
H      -0.31379877       1.82165352       0.76884692   
3
0.5830012807857515
O      -2.19012614      -1.04656235      -0.30146926   
H      -1.11713682      -1.04656235      -0.30146926   
H      -2.72558915      -0.18551583      -0.30146926   
3
0.924142024830718
O      -0.09346208       0.73761055      -2.71977068   
H       0.30120678       0.35648753      -3.59215119   
H      -1.08086747       1.00660409      -2.41432580   
3
0.03498341224096687
O       0.00000000       0.00000000       0.00000000   
H      -0.72194508      -0.60459193       0.00000000   
H       0.75388956      -0.63134379       0.00000000   
3
0.4176251082016102
O       1.15773367       0.66932338      -0.18169307   
H       2.17287522       1.02061846      -0.31767164   
H       1.01533235       1.10963296       0.73424350   
3
0.3844119788850272
O       0.36814296       0.86817968      -0.84434095   
H       1.37071876       0.86817968      -0.84434095   
H      -0.22395163       1.62901263      -0.84434095   
3
1.0626248987248608
O       0.37033021      -1.34843501      -2.89368079   
H       0.30548595      -0.43619961      -2.64070718   
H       0.38545463      -1.85418103      -3.90694846   
3
0.07868810084112944
O       1.25625235      -1.83276336       1.21911374   
H       2.21079981      -1.83276336       1.21911374   
H       0.86045070      -0.92931280       1.21911374   
3
0.6321679324979592
O      -1.28603161      -0.36761671       0.00148070   
H      -0.32799446      -0.36761671       0.00148070   
H      -1.91628798       0.51424686       0.00148070   
3
0.462019251313405
O       0.07974715      -1.94930643      -2.28175556   
H       0.24545883      -0.93152255      -2.17950381   
H      -0.91182013      -2.18831529      -1.93131896   
3
0.7844469325095554
O       0.27278507      -0.25451598      -1.28705631   
H       1.10317855      -0.25451598      -1.28705631   
H      -0.26579976       0.58400244      -1.28705631   
3
0.3000116572215927
O       1.40656225      -1.02038600      -0.77511334   
H       1.88837403      -0.56997680      -0.11827803   
H       1.25493280      -2.04502097      -0.61614807   
3
0.30530873057151786
O       1.46391948       0.08164984       0.06220537   
H       2.46554411       0.05587846      -0.12164388   
H       1.10754412       0.98391854       0.41288109   
3
0.4092866012166132
O      -1.90295327       1.46914573      -2.14182748   
H      -0.97194474       1.46914573      -2.14182748   
H      -1.78368656       2.47832543      -2.14182748   
3
0.23114532880484187
O      -1.67493762      -0.37795940      -0.16605665   
H      -0.69574805      -0.37795940      -0.16605665   
H      -2.02341364       0.61543371      -0.16605665   
3
1.682110816963243
O      -0.94710992       0.76719141      -0.57623090   
H      -1.37594119       1.28802057      -0.11025724   
H      -1.65640776      -0.04969782      -1.08527269   
3
0.03659769306814752
O       0.00000000       0.00000000       0.00000000   
H      -0.77605216      -0.53336587       0.00000000   
H       0.79894455      -0.54909938       0.00000000   
3
0.20130234948193007
O      -1.54757369      -0.04581020       0.09098502   
H      -2.36341984      -0.43169216       0.31603842   
H      -0.92483946      -0.86621151      -0.10843712   
3
1.5152990100716335
O      -0.43859812      -1.09727562      -0.60651365   
H       0.19228872      -0.58298161      -0.47922316   
H       0.18678569      -1.24671617      -1.44778503   
3
0.25874268573002973
O       0.13319290      -1.22495527       0.22821165   
H      -0.38367196      -0.39829652       0.01733329   
H       0.32050610      -1.49729927       1.10347119   
3
0.47657489887315907
O       1.28913194       0.00279392       0.39331763   
H       2.40683960       0.00279392       0.39331763   
H       1.16296336       0.96045698       0.39331763   
3
0.029767121152301425
O       0.00000000       0.00000000       0.00000000   
H      -0.78374414      -0.57058535       0.00000000   
H       0.79497257      -0.57875993       0.00000000   
3
0.4953221461505807
O      -1.21671263      -2.85231780      -0.74237301   
H      -0.31042812      -2.85231780      -0.74237301   
H      -1.64416732      -1.84924874      -0.74237301   
3
0.15580313525156586
O       0.48684799      -0.21838706      -1.18769061   
H       1.50637327      -0.21838706      -1.18769061   
H       0.40313378       0.71045448      -1.18769061   
3
0.8096635348837982
O      -2.84645885       1.18466414       0.98268162   
H      -1.83610039       1.18466414       0.98268162   
H      -2.54194462       2.17175722       0.98268162   
3
0.196690608153515
O       1.53432153       0.05499702      -0.00450553   
H       2.19994595      -0.14024423      -0.60318154   
H       0.95541694      -0.79807709       0.10161230   
3
0.9422922786555799
O      -1.30811270      -0.16468282      -0.05656531   
H      -0.22817473      -0.16468282      -0.05656531   
H      -1.13853665       0.69830304      -0.05656531   
3
0.3123021563525551
O      -1.68654169      -0.27458377       2.69428280   
H      -0.64918897      -0.27458377       2.69428280   
H      -2.07370174       0.54187254       2.69428280   
3
0.66193045825816
O       0.14349474      -1.28172837       0.38921895   
H      -0.42954854      -2.20227865       0.14405916   
H      -0.24366144      -0.44289544       0.26565419   
3
0.0667370436507158
O       0.00000000       0.00000000       0.00000000   
H      -0.70314549      -0.60527517       0.00000000   
H       0.74525001      -0.64151919       0.00000000   
3
0.8022903746853408
O       0.55206750      -1.16066925       0.37686057   
H       1.48025088      -1.16066925       0.37686057   
H       0.48174407       0.00655859       0.37686057   
3
0.42233632841924873
O       0.03359934       1.23489052      -0.24092792   
H      -0.04204384       1.87972458      -0.97957188   
H       0.06497887       2.09533661       0.34731700   
3
0.5528830538215135
O      -0.17162035       1.18108772      -0.62102782   
H       0.84546669       1.18108772      -0.62102782   
H      -0.79387582       2.00316654      -0.62102782   
3
0.47657489887315907
O       1.28913194       0.00279392       0.39331763   
H       2.40683960       0.00279392       0.39331763   
H       1.16296336       0.96045698       0.39331763   
3
0.20859030377538743
O       1.38105991       0.07616215      -0.01288376   
H       1.54905795      -0.81917348       0.48003838   
H       2.29651282       0.50703618       0.08860483   
3
0.3227159830415086
O       0.60202495      -0.76913041       1.64157315   
H       1.68278374      -0.76913041       1.64157315   
H       0.50286591       0.19108288       1.64157315   
3
1.5422823242324497
O       1.29050236       0.12964823       0.13652516   
H       1.52286368      -0.54259188      -0.18237024   
H       1.65993704       0.56484292       0.84636243   
3
0.06604053991877627
O       0.00000000       0.00000000       0.00000000   
H      -0.74257732      -0.55619289       0.00000000   
H       0.79815945      -0.59782410       0.00000000   
3
0.5226367811280962
O      -1.25077609       0.15620448      -0.18825843   
H      -0.13168498       0.15620448      -0.18825843   
H      -1.57182208       1.05110304      -0.18825843   
3
0.25931505653012354
O       0.00000000       0.00000000       0.00000000   
H      -0.71043978      -0.64937013       0.00000000   
H       0.78425170      -0.71683716       0.00000000   
3
0.19761524511769338
O      -1.33760368      -0.01913655       0.00670515   
H      -1.76631303       0.71742118       0.56631770   
H      -0.50633317       0.21805921      -0.26820452   
3
1.0612012160363795
O       0.24019390      -1.27104609      -0.22978977   
H       1.07154587      -1.27104609      -0.22978977   
H       0.31699099      -0.36867312      -0.22978977   
3
0.2237375622425458
O      -0.94049477      -0.67446170      -0.65606772   
H      -0.15013299      -0.31500588      -0.18369937   
H      -1.12025708      -1.21912569       0.06176788   
3
0.6502227801672567
O       0.22976360       0.21069250       1.30483112   
H       1.17688240       0.21069250       1.30483112   
H      -0.40922953       1.08756711       1.30483112   
3
0.033297498682051736
O       0.00000000       0.00000000       0.00000000   
H      -0.71931730      -0.58596436       0.00000000   
H       0.74085374      -0.60350820       0.00000000   
3
0.36155465093319716
O       0.13736976       0.81985260      -1.06149224   
H       1.11336925       0.81985260      -1.06149224   
H      -0.21979321       1.84472349      -1.06149224   
3
1.5233191815779417
O      -0.27918765      -0.31015645      -1.26461898   
H      -0.20187792      -0.37842533      -0.12323484   
H      -0.26163869      -1.48119560      -1.55331987   
3
0.18557529469349737
O       0.00000000       0.00000000       0.00000000   
H      -0.67406015      -0.59635804       0.00000000   
H       0.69486447      -0.61476416       0.00000000   
3
0.956264375232218
O      -0.45087221       0.35527500       1.20634711   
H       0.67815152       0.35527500       1.20634711   
H      -0.86748197       1.36344815       1.20634711   
3
0.46810435257698463
O      -1.27010182      -0.20492663       0.27149756   
H      -0.34881820      -0.20492663       0.27149756   
H      -1.21586992       0.86242916       0.27149756   
3
1.58084284635277
O      -0.23341875       1.10416618      -1.02453744   
H       0.09545369       1.45282567      -0.04616062   
H       0.51249988       0.52413961      -1.77538975   
3
0.18860612141426084
O      -1.55931992      -1.82731989       2.14437759   
H      -1.93036559      -2.64244042       2.50159182   
H      -1.37744411      -1.37946118       2.88369276   
3
0.2016906464616232
O      -0.13736976      -0.81985260       1.06149224   
H       0.31406957      -1.65996479       0.99618155   
H      -0.87760889      -0.89172566       0.59492464   
3
0.7264093903712703
O       0.76246507       2.62869683       1.74846804   
H       1.90524859       2.62869683       1.74846804   
H       0.55139942       3.49956332       1.74846804   
3
1.4790948085874411
O       0.81551809       0.89162468       0.35865084   
H       1.93794631       0.89162468       0.35865084   
H       0.10868433       1.76842407       0.35865084   
3
0.3823833444706181
O      -1.51754716      -0.05485943       0.02786529   
H      -2.31356898       0.24171350      -0.20011710   
H      -0.94384920       0.81219184       0.17555032   
3
0.18056461884579986
O       0.42850327       1.09355403      -2.65828909   
H       1.39696800       1.09355403      -2.65828909   
H       0.25558436       1.96186779      -2.65828909   
3
0.8111081121578821
O       1.23396276      -0.48671786      -0.22431512   
H       1.03621090      -1.46064182       0.22696400   
H       1.98785387      -1.05346033      -0.72594525   
3
0.12477554091474113
O       0.00000000       0.00000000       0.00000000   
H      -0.71367162      -0.61433618       0.00000000   
H       0.77682840      -0.66870221       0.00000000   
3
0.2119897751531624
O       0.00000000       0.00000000       0.00000000   
H      -0.66867163      -0.61631254       0.00000000   
H       0.74679821      -0.68832156       0.00000000   
3
0.2618410214822789
O      -1.13018481       0.44762866       0.50392517   
H      -0.45305363       0.17956638       1.05534813   
H      -1.35137774       1.31710650       0.46186827   
3
0.09479324024690686
O       0.00000000       0.00000000       0.00000000   
H      -0.69320921      -0.58857785       0.00000000   
H       0.73370597      -0.62296212       0.00000000   
3
0.034726292929872116
O       0.00000000       0.00000000       0.00000000   
H      -0.78007891      -0.55187255       0.00000000   
H       0.80275562      -0.56791536       0.00000000   
3
0.06839384659524625
O       2.79370566       1.46983381       0.76085663   
H       3.76971782       1.46983381       0.76085663   
H       2.41794824       2.33184425       0.76085663   
3
0.3279895398631675
O       0.52724176       2.48377780       1.85849289   
H       1.46212279       2.48377780       1.85849289   
H       0.52115980       3.53974410       1.85849289   
3
0.5094453974232328
O      -2.74078157       0.45604432      -0.84130182   
H      -1.84817717       0.45604432      -0.84130182   
H      -3.07524537       1.49667820      -0.84130182   
3
0.5368641677829569
O       1.17803483       0.28130601       0.51587471   
H       1.57703622       1.25415149       0.28550276   
H       1.23215759       0.01826701       1.52109709   
3
0.38966465532057687
O      -1.38628111      -0.03779133       0.05549061   
H      -1.98302352       0.86286881       0.03939652   
H      -0.51479869       0.21711501       0.08516678   
3
0.8836933001354732
O      -0.46231466       1.07300967      -0.65588628   
H       0.57258256       1.07300967      -0.65588628   
H      -1.04763803       2.03243296      -0.65588628   
3
0.641594991913884
O       1.32521567       0.21931918       0.01707931   
H       1.00015853       1.19608624       0.27272684   
H       2.11241170       0.05255668       0.30173890   
3
0.5606548944775689
O      -0.27795488       0.53185018       1.41345386   
H       0.55532911       0.53185018       1.41345386   
H      -0.62320481       1.42574012       1.41345386   
3
0.2059890195741027
O       1.53873689      -0.01143441      -0.07080938   
H       1.76393114      -0.64117813       0.60415942   
H       1.92487687       0.87004635       0.36286777   
3
0.8913330834761126
O       0.93142088      -1.01263626      -2.91788436   
H       2.03714434      -1.01263626      -2.91788436   
H       0.97564115       0.09462319      -2.91788436   
3
0.0006164972887166165
O       0.00000000       0.00000000       0.00000000   
H      -0.75846035      -0.59257417       0.00000000   
H       0.75846035      -0.59257417       0.00000000   
3
0.39004547580579213
O      -0.64707135       1.16868100       0.17478841   
H       0.12936864       1.35076817       0.60108389   
H      -0.90667634       1.42146622      -0.73535496   
3
0.3290584339280286
O      -1.57213214      -0.07281720       0.01989026   
H      -1.70787746       0.89633946       0.16191330   
H      -0.50913530      -0.00551401      -0.14466494   
3
0.018121480490279698
O       0.00000000       0.00000000       0.00000000   
H      -0.76128729      -0.55423621       0.00000000   
H       0.76128729      -0.55423621       0.00000000   
3
0.3131078794447075
O       1.37812351      -0.02796295      -0.04809137   
H       2.37557906      -0.28080616       0.28109826   
H       1.42192844       0.90848030      -0.03701157   
3
0.2145432050114509
O       0.00000000       0.00000000       0.00000000   
H      -0.72760201      -0.52971248       0.00000000   
H       0.82865785      -0.60328366       0.00000000   
3
0.07083917107653674
O       0.00000000       0.00000000       0.00000000   
H      -0.76481017      -0.57284537       0.00000000   
H       0.80927588      -0.60615034       0.00000000   
3
0.14541138991894068
O       0.00000000       0.00000000       0.00000000   
H      -0.68209323      -0.58715316       0.00000000   
H       0.71367162      -0.61433618       0.00000000   
3
0.35866567039369995
O      -2.08882051       1.06960563      -2.17150474   
H      -1.02689007       1.06960563      -2.17150474   
H      -2.12361721       1.98586814      -2.17150474   
3
0.19461179453358557
O       1.79048499      -1.38160210       0.76298400   
H       2.77258286      -1.38160210       0.76298400   
H       1.33871376      -0.58384421       0.76298400   
3
0.2630984140623609
O      -1.29050236      -0.12964823      -0.13652516   
H      -0.37120154      -0.12964823      -0.13652516   
H      -1.35809869       0.76422474      -0.13652516   
3
0.5891762234751957
O      -0.48684799       0.21838706       1.18769061   
H      -0.11866454      -0.54870509       1.70429161   
H       0.24508604      -0.09311212       0.63939315   
3
0.19307263911705802
O       0.00000000       0.00000000       0.00000000   
H      -0.68446231      -0.60556110       0.00000000   
H       0.76767961      -0.67918555       0.00000000   
3
0.9137702569310183
O       1.02432172      -0.06550205       0.83983621   
H       0.74091252       0.50602409       1.58734644   
H       1.66876482      -0.14761490       1.43122357   
3
0.8626578571838328
O      -0.20333362      -1.29862489      -0.14619400   
H       0.85344032      -1.29862489      -0.14619400   
H      -0.57492520      -0.21336929      -0.14619400   
3
0.07506910716938175
O       0.77342209       0.29970745      -2.67799782   
H       1.72382799       0.29970745      -2.67799782   
H       0.36113639       1.15922735      -2.67799782   
3
0.4194101095287146
O       1.52995559       0.09568551       0.05817359   
H       2.15668969      -0.35818133      -0.39821504   
H       0.72340267      -0.62440761       0.06512535   
3
1.0612012160363795
O       0.24019390      -1.27104609      -0.22978977   
H       1.07154587      -1.27104609      -0.22978977   
H       0.31699099      -0.36867312      -0.22978977   
3
0.1642091530485917
O       0.00000000       0.00000000       0.00000000   
H      -0.74171357      -0.50976561       0.00000000   
H       0.82183695      -0.56483289       0.00000000   
3
1.682110816963243
O      -0.94710992       0.76719141      -0.57623090   
H      -1.37594119       1.28802057      -0.11025724   
H      -1.65640776      -0.04969782      -1.08527269   
3
0.4176251082016102
O       1.15773367       0.66932338      -0.18169307   
H       2.17287522       1.02061846      -0.31767164   
H       1.01533235       1.10963296       0.73424350   
3
0.34720782817532153
O       1.46742127      -1.19259396       0.94164785   
H       1.60210061      -2.24338036       1.05547804   
H       1.51301898      -1.09093807       1.90124610   
3
0.9212678678697157
O      -1.29127897      -0.32709635       0.13139232   
H      -0.16337683      -0.32709635       0.13139232   
H      -1.33939727       0.77610871       0.13139232   
3
0.9688256579960574
O      -1.05140300      -0.81914556      -0.08664618   
H       0.03302372      -0.81914556      -0.08664618   
H      -1.10254029       0.33416975      -0.08664618   
3
0.9833185574522229
O      -0.48733261       0.76634092       1.40135471   
H      -0.79262361       1.17391584       2.08296712   
H       0.03227912       1.67293960       1.28934590   
3
0.07609924441967955
O       0.00000000       0.00000000       0.00000000   
H      -0.73879706      -0.53022806       0.00000000   
H       0.78195702      -0.56120359       0.00000000   
3
0.3769080893993819
O       1.50445011       0.70565337       1.93781531   
H       0.68600327       1.03938972       1.66536296   
H       2.09519769       1.14390261       1.13909834   
3
0.12893502518885855
O       0.00000000       0.00000000       0.00000000   
H      -0.73472549      -0.51978694       0.00000000   
H       0.75740220      -0.53582974       0.00000000   
3
0.8697606870556229
O      -1.03629285       0.79564429       0.24496541   
H      -0.67008485       0.29183637       1.14720361   
H      -1.88503868       1.46956131       0.36963186   
3
0.7315896680867949
O       1.09682723      -0.52879253      -1.93795656   
H       0.10715360      -0.24031693      -1.94431534   
H       1.20775144       0.26526061      -1.59745507   
3
0.19991476990840895
O       0.02745307       0.03789283      -1.59603195   
H       0.68169575      -0.43253360      -2.26525907   
H      -0.83097156       0.03803441      -2.09886670   
3
0.6369771545006262
O      -0.99871580      -0.90540145       0.02009660   
H      -0.06214938      -0.90540145       0.02009660   
H      -1.45867837      -0.20224535       0.02009660   
3
1.3368138629841437
O      -1.75935499       1.42813015       1.47979941   
H      -0.66437126       1.42813015       1.47979941   
H      -2.29953268       2.47574733       1.47979941   
3
0.3444177350896532
O      -0.43442443       0.03292021      -1.26327251   
H      -0.86406197      -0.41327237      -0.46741508   
H       0.40488432      -0.14357398      -1.14146791   
3
0.1688550452083073
O      -1.12528452      -2.36479282      -1.79300397   
H      -1.59540213      -2.67311109      -2.61246731   
H      -0.43454916      -1.65157467      -1.94625209   
3
0.14653189271363665
O       0.00000000       0.00000000       0.00000000   
H      -0.75727745      -0.66998249       0.00000000   
H       0.75727745      -0.66998249       0.00000000   
3
0.2555606968557339
O      -0.63490603       0.86234598      -0.80280430   
H      -1.65328150       1.13869895      -0.85234267   
H      -0.35102852       1.52970744      -1.46124133   
3
0.9528890180027388
O      -1.01647644       0.20722635      -0.84053846   
H       0.16388061       0.20722635      -0.84053846   
H      -1.08946382       1.10056789      -0.84053846   
3
0.5436011640970297
O      -0.31084707       1.15486943       0.59924662   
H       0.60451620       1.15486943       0.59924662   
H      -0.87698590       2.06829423       0.59924662   
3
0.12206509864385334
O       1.40966570       0.03469318       0.06508693   
H       2.43157120       0.10868395      -0.01313888   
H       1.05559202       0.93185991       0.09829450   
3
0.17139278643683795
O       0.00000000       0.00000000       0.00000000   
H      -0.72034446      -0.53954041       0.00000000   
H       0.80927588      -0.60615034       0.00000000   
3
0.66193045825816
O       0.14349474      -1.28172837       0.38921895   
H      -0.42954854      -2.20227865       0.14405916   
H      -0.24366144      -0.44289544       0.26565419   
3
0.63290950488012
O      -2.95521741      -0.86211106       0.94942994   
H      -1.88602485      -0.86211106       0.94942994   
H      -3.55018142      -0.07318986       0.94942994   
3
0.18993599962069177
O       0.78673001       0.65166745       0.70494886   
H       1.77181274       0.65166745       0.70494886   
H       0.76754188       1.57173683       0.70494886   
3
0.9532558292004651
O      -0.72817587       0.16933375       1.09978834   
H      -0.91783280       0.76700301       1.61813645   
H      -0.17565142       0.39964654       0.44949052   
3
0.18287787615939935
O       1.04675936       0.11844102      -0.79563241   
H       1.98292553       0.11844102      -0.79563241   
H       0.55159627       0.97130563      -0.79563241   
3
0.21881218810436198
O      -1.06980878       1.52247515       1.62787017   
H      -2.02001705       1.52814560       1.35059688   
H      -0.63331580       0.73125124       1.88171225   
3
0.05579357507350855
O       0.00000000       0.00000000       0.00000000   
H      -0.72395655      -0.55774529       0.00000000   
H       0.75696369      -0.58317441       0.00000000   
3
0.1925508108160184
O       1.43212055       0.06726195       0.01545847   
H       1.51078294      -0.70786511       0.69689496   
H       2.32358281       0.53041779      -0.00267165   
3
0.0213699335692191
O       0.00000000       0.00000000       0.00000000   
H      -0.75162197      -0.61228012       0.00000000   
H       0.76239019      -0.62105204       0.00000000   
3
0.04471209027990516
O       0.00000000       0.00000000       0.00000000   
H      -0.74596131      -0.57469803       0.00000000   
H       0.78997083      -0.60860352       0.00000000   
3
0.16485057638131367
O      -1.54382113       0.06778870      -0.04542410   
H      -2.00161682       0.65343191       0.62692997   
H      -0.54908286       0.27482361       0.13772349   
3
0.07868810084112944
O       1.25625235      -1.83276336       1.21911374   
H       2.21079981      -1.83276336       1.21911374   
H       0.86045070      -0.92931280       1.21911374   
3
0.40477947685277693
O      -0.00345450       1.39849593       0.01379064   
H      -0.27156117       2.08091129      -0.69395564   
H      -0.11038242       2.09832556       0.82862499   
3
0.289103408858195
O       0.77116315       1.02715752       0.39941456   
H       1.27167757       1.82646406       0.42940643   
H       0.41513538       1.19688547       1.37287856   
3
0.9532558292004651
O      -0.72817587       0.16933375       1.09978834   
H      -0.91783280       0.76700301       1.61813645   
H      -0.17565142       0.39964654       0.44949052   
3
0.7586870510771869
O      -1.04532901       0.49005141       0.51882363   
H      -0.43495418      -0.24211062       0.48512904   
H      -1.60792924       0.23858124       1.51679407   
3
0.17974161832212998
O       0.00000000       0.00000000       0.00000000   
H      -0.74606384      -0.52780834       0.00000000   
H       0.83677069      -0.59197957       0.00000000   
3
0.20902465951194912
O       0.00000000       0.00000000       0.00000000   
H      -0.82502353      -0.49572415       0.00000000   
H       0.87056054      -0.52308555       0.00000000   
3
0.29488858383919825
O       0.46327719      -1.10601700       0.26687077   
H       1.25426521      -0.57620286       0.15970087   
H      -0.06290751      -0.24168863       0.10687241   
3
0.11909125180225505
O       0.00000000       0.00000000       0.00000000   
H      -0.69778085      -0.56842052       0.00000000   
H       0.73008552      -0.59473628       0.00000000   
3
0.08612382118907229
O       0.00000000       0.00000000       0.00000000   
H      -0.73370597      -0.62296212       0.00000000   
H       0.77420272      -0.65734639       0.00000000   
3
0.39065608110418326
O       0.97354567       0.51792212      -0.67551077   
H       2.04207360       0.51792212      -0.67551077   
H       0.76407246       1.53820982      -0.67551077   
3
0.9308542290634995
O      -1.27016753       0.17930038      -0.08063035   
H      -0.09516927       0.17930038      -0.08063035   
H      -1.62406967       1.14137533      -0.08063035   
3
0.08933029433300403
O       1.56590597       0.01116771      -0.03880732   
H       1.89426795      -0.82407150      -0.32177968   
H       2.21065682       0.66813550       0.08047301   
3
0.3571323921259402
O      -1.56841715       0.00418481      -0.00150606   
H      -2.24289774      -0.39076694       0.46669497   
H      -0.69072308      -0.59941102       0.14547739   
3
0.029767121152301425
O       0.00000000       0.00000000       0.00000000   
H      -0.78374414      -0.57058535       0.00000000   
H       0.79497257      -0.57875993       0.00000000   
3
0.4419126660005976
O      -1.83928765      -0.76607230      -1.35501008   
H      -2.55862450      -1.33432570      -1.33620174   
H      -1.06291541      -0.89601626      -0.95997004   
3
0.37759596697474934
O      -1.48450353      -0.00874755      -0.01361216   
H      -2.23828855       0.26799030      -0.38640366   
H      -0.69710626       0.60311252      -0.35215482   
3
0.18967234003949884
O       1.24477760       0.49730658      -0.00484860   
H       0.57980989       1.06842668       0.11768794   
H       1.09387758       0.21400428      -0.88496164   
3
0.17640421445130053
O      -1.94004538       1.56017988       0.05608599   
H      -1.14482837       2.10737182       0.22467886   
H      -1.78914833       1.58894124      -0.95122949   
3
0.3806200199431588
O       2.81074978      -0.77646499       0.78641940   
H       3.79681442      -0.77646499       0.78641940   
H       2.22634355      -0.05507289       0.78641940   
3
0.6369771545006262
O      -0.99871580      -0.90540145       0.02009660   
H      -0.06214938      -0.90540145       0.02009660   
H      -1.45867837      -0.20224535       0.02009660   
3
0.5651439433745956
O       1.28469950      -0.19058456      -0.24711723   
H       0.79091212      -0.43774717      -1.23995822   
H       1.57312499      -1.07785231      -0.01814636   
3
0.14291681304337756
O      -0.92180662      -0.81789139       0.30137754   
H      -0.32123832      -0.07462732       0.13342514   
H      -1.47716245      -0.68952313       1.00078718   
3
0.743926528236435
O       1.11189685      -0.44881308      -0.61008965   
H       2.06393855      -0.44881308      -0.61008965   
H       1.11206997       0.38699567      -0.61008965   
3
1.4998332865236765
O       0.62726676      -1.12704184       0.03255762   
H       1.63703333      -1.12704184       0.03255762   
H      -0.12463009      -0.17849860       0.03255762   
3
0.1703860031624101
O      -2.31846674       1.88884501      -1.01010664   
H      -1.91716455       2.34698245      -1.73085322   
H      -2.55009145       2.61051481      -0.29355794   
3
0.019242114890548764
O       0.00000000       0.00000000       0.00000000   
H      -0.76796607      -0.59165078       0.00000000   
H       0.77896845      -0.60012715       0.00000000   
3
0.26013394525135225
O       1.03629285      -0.79564429      -0.24496541   
H       1.92196346      -0.79564429      -0.24496541   
H       0.87972652       0.20539241      -0.24496541   
3
0.30530873057151786
O       1.46391948       0.08164984       0.06220537   
H       2.46554411       0.05587846      -0.12164388   
H       1.10754412       0.98391854       0.41288109   
3
0.45862208875402866
O      -0.08771702      -1.58250358       0.02038978   
H       0.71509322      -2.12823236       0.04493963   
H       0.27736034      -0.60586933      -0.37351106   
